functions/OneTimeScripts/validationAgainstOpenDSS_MATLAB/ieee123_1ph_created/results/pv000_batt000/powers9.csv
Element, Terminal, P(kW), Q(kvar),  P_Normal, Q_Normal, P_Emergency, Q_Emergency
"Line.L115"             ,   1,       889.7,       285.2,         0.0,         0.0,         0.0,         0.0
"Line.L115"             ,   2,      -886.3,      -278.0
"Line.L1"               ,   1,         5.0,         2.5,         0.0,         0.0,         0.0,         0.0
"Line.L1"               ,   2,        -5.0,        -2.5
"Line.L2"               ,   1,        25.0,        12.5,         0.0,         0.0,         0.0,         0.0
"Line.L2"               ,   2,       -25.0,       -12.5
"Line.L3"               ,   1,       846.3,       258.0,         0.0,         0.0,         0.0,         0.0
"Line.L3"               ,   2,      -843.9,      -253.2
"Line.L4"               ,   1,        10.0,         5.0,         0.0,         0.0,         0.0,         0.0
"Line.L4"               ,   2,       -10.0,        -5.0
"Line.L5"               ,   1,        15.0,         7.5,         0.0,         0.0,         0.0,         0.0
"Line.L5"               ,   2,       -15.0,        -7.5
"Line.L6"               ,   1,        10.0,         5.0,         0.0,         0.0,         0.0,         0.0
"Line.L6"               ,   2,       -10.0,        -5.0
"Line.L7"               ,   1,       838.9,       250.7,         0.0,         0.0,         0.0,         0.0
"Line.L7"               ,   2,      -837.3,      -247.5
"Line.L8"               ,   1,         5.0,         2.5,         0.0,         0.0,         0.0,         0.0
"Line.L8"               ,   2,        -5.0,        -2.5
"Line.L9"               ,   1,        25.0,        12.5,         0.0,         0.0,         0.0,         0.0
"Line.L9"               ,   2,       -25.0,       -12.5
"Line.L10"              ,   1,       807.3,       232.5,         0.0,         0.0,         0.0,         0.0
"Line.L10"              ,   2,      -805.2,      -228.1
"Line.L11"              ,   1,        15.0,         7.5,         0.0,         0.0,         0.0,         0.0
"Line.L11"              ,   2,       -15.0,        -7.5
"Line.L12"              ,   1,        25.0,        12.5,         0.0,         0.0,         0.0,         0.0
"Line.L12"              ,   2,       -25.0,       -12.5
"Line.L13"              ,   1,       280.2,       165.4,         0.0,         0.0,         0.0,         0.0
"Line.L13"              ,   2,      -279.3,      -163.6
"Line.L14"              ,   1,        10.0,         5.0,         0.0,         0.0,         0.0,         0.0
"Line.L14"              ,   2,       -10.0,        -5.0
"Line.L15"              ,   1,         5.0,         2.5,         0.0,         0.0,         0.0,         0.0
"Line.L15"              ,   2,        -5.0,        -2.5
"Line.L16"              ,   1,        10.0,         5.0,         0.0,         0.0,         0.0,         0.0
"Line.L16"              ,   2,       -10.0,        -5.0
"Line.L17"              ,   1,         5.0,         2.5,         0.0,         0.0,         0.0,         0.0
"Line.L17"              ,   2,        -5.0,        -2.5
"Line.L18"              ,   1,        20.0,        10.0,         0.0,         0.0,         0.0,         0.0
"Line.L18"              ,   2,       -20.0,       -10.0
"Line.L19"              ,   1,        70.1,        35.1,         0.0,         0.0,         0.0,         0.0
"Line.L19"              ,   2,       -70.0,       -35.0
"Line.L20"              ,   1,        10.0,         5.0,         0.0,         0.0,         0.0,         0.0
"Line.L20"              ,   2,       -10.0,        -5.0
"Line.L21"              ,   1,        10.0,         5.0,         0.0,         0.0,         0.0,         0.0
"Line.L21"              ,   2,       -10.0,        -5.0
"Line.L22"              ,   1,        60.0,        30.0,         0.0,         0.0,         0.0,         0.0
"Line.L22"              ,   2,       -60.0,       -30.0
"Line.L23"              ,   1,        10.0,         5.0,         0.0,         0.0,         0.0,         0.0
"Line.L23"              ,   2,       -10.0,        -5.0
"Line.L24"              ,   1,        50.0,        25.0,         0.0,         0.0,         0.0,         0.0
"Line.L24"              ,   2,       -50.0,       -25.0
"Line.L25"              ,   1,        20.0,        10.0,         0.0,         0.0,         0.0,         0.0
"Line.L25"              ,   2,       -20.0,       -10.0
"Line.L26"              ,   1,        30.0,        15.0,         0.0,         0.0,         0.0,         0.0
"Line.L26"              ,   2,       -30.0,       -15.0
"Line.L27"              ,   1,        10.0,         5.0,         0.0,         0.0,         0.0,         0.0
"Line.L27"              ,   2,       -10.0,        -5.0
"Line.L28"              ,   1,        10.0,         5.0,         0.0,         0.0,         0.0,         0.0
"Line.L28"              ,   2,       -10.0,        -5.0
"Line.L29"              ,   1,        10.0,         5.0,         0.0,         0.0,         0.0,         0.0
"Line.L29"              ,   2,       -10.0,        -5.0
"Line.L30"              ,   1,        20.0,        10.0,         0.0,         0.0,         0.0,         0.0
"Line.L30"              ,   2,       -20.0,       -10.0
"Line.L31"              ,   1,        10.0,         5.0,         0.0,         0.0,         0.0,         0.0
"Line.L31"              ,   2,       -10.0,        -5.0
"Line.L32"              ,   1,        -0.0,        -0.0,         0.0,         0.0,         0.0,         0.0
"Line.L32"              ,   2,        -0.0,        -0.0
"Line.L33"              ,   1,         5.0,         2.5,         0.0,         0.0,         0.0,         0.0
"Line.L33"              ,   2,        -5.0,        -2.5
"Line.L34"              ,   1,        15.0,         7.5,         0.0,         0.0,         0.0,         0.0
"Line.L34"              ,   2,       -15.0,        -7.5
"Line.L35"              ,   1,        20.0,        10.0,         0.0,         0.0,         0.0,         0.0
"Line.L35"              ,   2,       -20.0,       -10.0
"Line.L36"              ,   1,       159.1,       103.1,         0.0,         0.0,         0.0,         0.0
"Line.L36"              ,   2,      -159.0,      -102.9
"Line.L37"              ,   1,        10.0,         5.0,         0.0,         0.0,         0.0,         0.0
"Line.L37"              ,   2,       -10.0,        -5.0
"Line.L38"              ,   1,        10.0,         5.0,         0.0,         0.0,         0.0,         0.0
"Line.L38"              ,   2,       -10.0,        -5.0
"Line.L39"              ,   1,         5.0,         2.5,         0.0,         0.0,         0.0,         0.0
"Line.L39"              ,   2,        -5.0,        -2.5
"Line.L40"              ,   1,         5.0,         2.5,         0.0,         0.0,         0.0,         0.0
"Line.L40"              ,   2,        -5.0,        -2.5
"Line.L41"              ,   1,       154.0,       100.4,         0.0,         0.0,         0.0,         0.0
"Line.L41"              ,   2,      -153.9,      -100.3
"Line.L42"              ,   1,        10.0,         5.0,         0.0,         0.0,         0.0,         0.0
"Line.L42"              ,   2,       -10.0,        -5.0
"Line.L43"              ,   1,       138.9,        92.8,         0.0,         0.0,         0.0,         0.0
"Line.L43"              ,   2,      -138.8,       -92.7
"Line.L44"              ,   1,        10.0,         5.0,         0.0,         0.0,         0.0,         0.0
"Line.L44"              ,   2,       -10.0,        -5.0
"Line.L45"              ,   1,       128.8,        87.7,         0.0,         0.0,         0.0,         0.0
"Line.L45"              ,   2,      -128.8,       -87.5
"Line.L46"              ,   1,         5.0,         2.5,         0.0,         0.0,         0.0,         0.0
"Line.L46"              ,   2,        -5.0,        -2.5
"Line.L47"              ,   1,        52.5,        37.5,         0.0,         0.0,         0.0,         0.0
"Line.L47"              ,   2,       -52.5,       -37.5
"Line.L48"              ,   1,        50.0,        31.3,         0.0,         0.0,         0.0,         0.0
"Line.L48"              ,   2,       -50.0,       -31.2
"Line.L49"              ,   1,        15.0,         7.5,         0.0,         0.0,         0.0,         0.0
"Line.L49"              ,   2,       -15.0,        -7.5
"Line.L50"              ,   1,         5.0,         2.5,         0.0,         0.0,         0.0,         0.0
"Line.L50"              ,   2,        -5.0,        -2.5
"Line.L51"              ,   1,         0.0,        -0.0,         0.0,         0.0,         0.0,         0.0
"Line.L51"              ,   2,         0.0,         0.0
"Line.L52"              ,   1,       488.9,        43.0,         0.0,         0.0,         0.0,         0.0
"Line.L52"              ,   2,      -488.4,       -42.0
"Line.L53"              ,   1,       478.4,        37.0,         0.0,         0.0,         0.0,         0.0
"Line.L53"              ,   2,      -478.1,       -36.4
"Line.L54"              ,   1,        10.0,         5.0,         0.0,         0.0,         0.0,         0.0
"Line.L54"              ,   2,       -10.0,        -5.0
"Line.L55"              ,   1,       468.1,        31.4,         0.0,         0.0,         0.0,         0.0
"Line.L55"              ,   2,      -467.3,       -29.8
"Line.L56"              ,   1,         5.0,         2.5,         0.0,         0.0,         0.0,         0.0
"Line.L56"              ,   2,        -5.0,        -2.5
"Line.L57"              ,   1,        10.0,         5.0,         0.0,         0.0,         0.0,         0.0
"Line.L57"              ,   2,       -10.0,        -5.0
"Line.L58"              ,   1,       457.3,        24.8,         0.0,         0.0,         0.0,         0.0
"Line.L58"              ,   2,      -455.7,       -21.4
"Line.L59"              ,   1,         5.0,         2.5,         0.0,         0.0,         0.0,         0.0
"Line.L59"              ,   2,        -5.0,        -2.5
"Line.L60"              ,   1,         0.0,        -0.0,         0.0,         0.0,         0.0,         0.0
"Line.L60"              ,   2,        -0.0,         0.0
"Line.L61"              ,   1,        92.8,        52.5,         0.0,         0.0,         0.0,         0.0
"Line.L61"              ,   2,       -92.7,       -52.5
"Line.L62"              ,   1,        82.7,        47.5,         0.0,         0.0,         0.0,         0.0
"Line.L62"              ,   2,       -82.6,       -47.5
"Line.L63"              ,   1,        72.6,        42.5,         0.0,         0.0,         0.0,         0.0
"Line.L63"              ,   2,       -72.6,       -42.5
"Line.L64"              ,   1,        53.8,        33.7,         0.0,         0.0,         0.0,         0.0
"Line.L64"              ,   2,       -53.8,       -33.7
"Line.L65"              ,   1,        18.8,         8.7,         0.0,         0.0,         0.0,         0.0
"Line.L65"              ,   2,       -18.7,        -8.7
"Line.L66"              ,   1,        30.0,        15.0,         0.0,         0.0,         0.0,         0.0
"Line.L66"              ,   2,       -30.0,       -15.0
"Line.L67"              ,   1,       217.2,      -104.9,         0.0,         0.0,         0.0,         0.0
"Line.L67"              ,   2,      -217.0,       105.3
"Line.L68"              ,   1,       110.2,        55.2,         0.0,         0.0,         0.0,         0.0
"Line.L68"              ,   2,      -110.1,       -55.1
"Line.L69"              ,   1,        25.0,        12.5,         0.0,         0.0,         0.0,         0.0
"Line.L69"              ,   2,       -25.0,       -12.5
"Line.L70"              ,   1,        15.0,         7.5,         0.0,         0.0,         0.0,         0.0
"Line.L70"              ,   2,       -15.0,        -7.5
"Line.L71"              ,   1,        10.0,         5.0,         0.0,         0.0,         0.0,         0.0
"Line.L71"              ,   2,       -10.0,        -5.0
"Line.L72"              ,   1,        30.0,        15.0,         0.0,         0.0,         0.0,         0.0
"Line.L72"              ,   2,       -30.0,       -15.0
"Line.L73"              ,   1,       187.0,      -120.3,         0.0,         0.0,         0.0,         0.0
"Line.L73"              ,   2,      -186.9,       120.5
"Line.L74"              ,   1,        20.0,        10.0,         0.0,         0.0,         0.0,         0.0
"Line.L74"              ,   2,       -20.0,       -10.0
"Line.L75"              ,   1,        10.0,         5.0,         0.0,         0.0,         0.0,         0.0
"Line.L75"              ,   2,       -10.0,        -5.0
"Line.L76"              ,   1,        60.5,      -152.7,         0.0,         0.0,         0.0,         0.0
"Line.L76"              ,   2,       -60.4,       153.0
"Line.L77"              ,   1,        65.1,       -12.8,         0.0,         0.0,         0.0,         0.0
"Line.L77"              ,   2,       -65.0,        12.8
"Line.L78"              ,   1,        50.4,      -158.0,         0.0,         0.0,         0.0,         0.0
"Line.L78"              ,   2,       -50.4,       158.0
"Line.L79"              ,   1,        10.0,         5.0,         0.0,         0.0,         0.0,         0.0
"Line.L79"              ,   2,       -10.0,        -5.0
"Line.L80"              ,   1,        40.4,      -163.0,         0.0,         0.0,         0.0,         0.0
"Line.L80"              ,   2,       -40.2,       163.3
"Line.L81"              ,   1,        30.2,      -168.3,         0.0,         0.0,         0.0,         0.0
"Line.L81"              ,   2,       -30.2,       168.4
"Line.L82"              ,   1,        15.2,      -175.9,         0.0,         0.0,         0.0,         0.0
"Line.L82"              ,   2,       -15.1,       176.1
"Line.L83"              ,   1,        15.0,         7.5,         0.0,         0.0,         0.0,         0.0
"Line.L83"              ,   2,       -15.0,        -7.5
"Line.L84"              ,   1,         5.1,      -181.1,         0.0,         0.0,         0.0,         0.0
"Line.L84"              ,   2,        -5.0,       181.3
"Line.L85"              ,   1,        10.0,         5.0,         0.0,         0.0,         0.0,         0.0
"Line.L85"              ,   2,       -10.0,        -5.0
"Line.L86"              ,   1,        60.0,       -15.3,         0.0,         0.0,         0.0,         0.0
"Line.L86"              ,   2,       -60.0,        15.4
"Line.L87"              ,   1,        10.0,       -10.1,         0.0,         0.0,         0.0,         0.0
"Line.L87"              ,   2,       -10.0,        10.1
"Line.L88"              ,   1,        40.0,       -10.3,         0.0,         0.0,         0.0,         0.0
"Line.L88"              ,   2,       -40.0,        10.3
"Line.L89"              ,   1,        10.0,       -10.1,         0.0,         0.0,         0.0,         0.0
"Line.L89"              ,   2,       -10.0,        10.1
"Line.L90"              ,   1,        30.0,        -0.1,         0.0,         0.0,         0.0,         0.0
"Line.L90"              ,   2,       -30.0,         0.1
"Line.L91"              ,   1,        10.0,       -10.1,         0.0,         0.0,         0.0,         0.0
"Line.L91"              ,   2,       -10.0,        10.1
"Line.L92"              ,   1,        20.0,        10.0,         0.0,         0.0,         0.0,         0.0
"Line.L92"              ,   2,       -20.0,       -10.0
"Line.L93"              ,   1,        10.0,         5.0,         0.0,         0.0,         0.0,         0.0
"Line.L93"              ,   2,       -10.0,        -5.0
"Line.L94"              ,   1,        10.0,         5.0,         0.0,         0.0,         0.0,         0.0
"Line.L94"              ,   2,       -10.0,        -5.0
"Line.L95"              ,   1,         5.0,         2.5,         0.0,         0.0,         0.0,         0.0
"Line.L95"              ,   2,        -5.0,        -2.5
"Line.L96"              ,   1,        30.0,        15.0,         0.0,         0.0,         0.0,         0.0
"Line.L96"              ,   2,       -30.0,       -15.0
"Line.L97"              ,   1,        20.0,        10.0,         0.0,         0.0,         0.0,         0.0
"Line.L97"              ,   2,       -20.0,       -10.0
"Line.L98"              ,   1,        10.0,         5.0,         0.0,         0.0,         0.0,         0.0
"Line.L98"              ,   2,       -10.0,        -5.0
"Line.L99"              ,   1,         0.0,        -0.0,         0.0,         0.0,         0.0,         0.0
"Line.L99"              ,   2,         0.0,         0.0
"Line.L118"             ,   1,        80.1,        40.1,         0.0,         0.0,         0.0,         0.0
"Line.L118"             ,   2,       -80.1,       -40.1
"Line.L100"             ,   1,        25.0,        12.5,         0.0,         0.0,         0.0,         0.0
"Line.L100"             ,   2,       -25.0,       -12.5
"Line.L101"             ,   1,        55.1,        27.6,         0.0,         0.0,         0.0,         0.0
"Line.L101"             ,   2,       -55.1,       -27.6
"Line.L102"             ,   1,        20.0,        10.0,         0.0,         0.0,         0.0,         0.0
"Line.L102"             ,   2,       -20.0,       -10.0
"Line.L103"             ,   1,        10.0,         5.0,         0.0,         0.0,         0.0,         0.0
"Line.L103"             ,   2,       -10.0,        -5.0
"Line.L104"             ,   1,        20.0,        10.0,         0.0,         0.0,         0.0,         0.0
"Line.L104"             ,   2,       -20.0,       -10.0
"Line.L105"             ,   1,        35.1,        17.5,         0.0,         0.0,         0.0,         0.0
"Line.L105"             ,   2,       -35.1,       -17.5
"Line.L106"             ,   1,        10.0,         5.0,         0.0,         0.0,         0.0,         0.0
"Line.L106"             ,   2,       -10.0,        -5.0
"Line.L107"             ,   1,        35.1,        17.5,         0.0,         0.0,         0.0,         0.0
"Line.L107"             ,   2,       -35.0,       -17.5
"Line.L108"             ,   1,         0.0,        -0.0,         0.0,         0.0,         0.0,         0.0
"Line.L108"             ,   2,         0.0,         0.0
"Line.L109"             ,   1,        25.0,        12.5,         0.0,         0.0,         0.0,         0.0
"Line.L109"             ,   2,       -25.0,       -12.5
"Line.L110"             ,   1,         5.0,         2.5,         0.0,         0.0,         0.0,         0.0
"Line.L110"             ,   2,        -5.0,        -2.5
"Line.L111"             ,   1,        20.0,        10.0,         0.0,         0.0,         0.0,         0.0
"Line.L111"             ,   2,       -20.0,       -10.0
"Line.L112"             ,   1,        15.0,         7.5,         0.0,         0.0,         0.0,         0.0
"Line.L112"             ,   2,       -15.0,        -7.5
"Line.L113"             ,   1,         5.0,         2.5,         0.0,         0.0,         0.0,         0.0
"Line.L113"             ,   2,        -5.0,        -2.5
"Line.L114"             ,   1,       189.3,       118.5,         0.0,         0.0,         0.0,         0.0
"Line.L114"             ,   2,      -189.1,      -118.1
"Line.L116"             ,   1,       499.9,        50.1,         0.0,         0.0,         0.0,         0.0
"Line.L116"             ,   2,      -498.9,       -48.0
"Line.L117"             ,   1,       357.9,       -33.6,         0.0,         0.0,         0.0,         0.0
"Line.L117"             ,   2,      -357.4,        34.7
"Line.SW1"              ,   1,       889.7,       285.2,         0.0,         0.0,         0.0,         0.0
"Line.SW1"              ,   2,      -889.7,      -285.2
"Line.SW2"              ,   1,       499.9,        50.1,         0.0,         0.0,         0.0,         0.0
"Line.SW2"              ,   2,      -499.9,       -50.1
"Line.SW3"              ,   1,       189.3,       118.5,         0.0,         0.0,         0.0,         0.0
"Line.SW3"              ,   2,      -189.3,      -118.5
"Line.SW4"              ,   1,       357.9,       -33.6,         0.0,         0.0,         0.0,         0.0
"Line.SW4"              ,   2,      -357.9,        33.6
"Line.SW5"              ,   1,        80.1,        40.1,         0.0,         0.0,         0.0,         0.0
"Line.SW5"              ,   2,       -80.1,       -40.1
"Line.XFM1"             ,   1,         0.0,        -0.0,         0.0,         0.0,         0.0,         0.0
"Line.XFM1"             ,   2,        -0.0,         0.0
"Capacitor.C83"         ,   1,         0.0,      -183.8,         0.0,         0.0,         0.0,         0.0
"Capacitor.C83"         ,   2,         0.0,         0.0
"Capacitor.C88"         ,   1,         0.0,       -15.1,         0.0,         0.0,         0.0,         0.0
"Capacitor.C88"         ,   2,         0.0,         0.0
"Capacitor.C90"         ,   1,         0.0,       -15.1,         0.0,         0.0,         0.0,         0.0
"Capacitor.C90"         ,   2,         0.0,         0.0
"Capacitor.C92"         ,   1,         0.0,       -15.1,         0.0,         0.0,         0.0,         0.0
"Capacitor.C92"         ,   2,         0.0,         0.0
"Transformer.REG1A"     ,   1,       889.7,       285.2,         0.0,         0.0,         0.0,         0.0
"Transformer.REG1A"     ,   2,      -889.7,      -285.2
"Transformer.REG2A"     ,   1,        15.0,         7.5,         0.0,         0.0,         0.0,         0.0
"Transformer.REG2A"     ,   2,       -15.0,        -7.5
"Transformer.REG3A"     ,   1,        20.0,        10.0,         0.0,         0.0,         0.0,         0.0
"Transformer.REG3A"     ,   2,       -20.0,       -10.0
"Transformer.REG4A"     ,   1,       357.9,       -33.6,         0.0,         0.0,         0.0,         0.0
"Transformer.REG4A"     ,   2,      -357.9,        33.6
"Load.S1"               ,   1,        10.0,         5.0
"Load.S2"               ,   1,         5.0,         2.5
"Load.S4"               ,   1,        10.0,         5.0
"Load.S5"               ,   1,         5.0,         2.5
"Load.S6"               ,   1,        10.0,         5.0
"Load.S7"               ,   1,         5.0,         2.5
"Load.S9"               ,   1,        10.0,         5.0
"Load.S10"              ,   1,         5.0,         2.5
"Load.S11"              ,   1,        10.0,         5.0
"Load.S12"              ,   1,         5.0,         2.5
"Load.S16"              ,   1,        10.0,         5.0
"Load.S17"              ,   1,         5.0,         2.5
"Load.S19"              ,   1,        10.0,         5.0
"Load.S20"              ,   1,        10.0,         5.0
"Load.S22"              ,   1,        10.0,         5.0
"Load.S24"              ,   1,        10.0,         5.0
"Load.S28"              ,   1,        10.0,         5.0
"Load.S29"              ,   1,        10.0,         5.0
"Load.S30"              ,   1,        10.0,         5.0
"Load.S31"              ,   1,         5.0,         2.5
"Load.S32"              ,   1,         5.0,         2.5
"Load.S33"              ,   1,        10.0,         5.0
"Load.S34"              ,   1,        10.0,         5.0
"Load.S35"              ,   1,        10.0,         5.0
"Load.S37"              ,   1,        10.0,         5.0
"Load.S38"              ,   1,         5.0,         2.5
"Load.S39"              ,   1,         5.0,         2.5
"Load.S41"              ,   1,         5.0,         2.5
"Load.S42"              ,   1,         5.0,         2.5
"Load.S43"              ,   1,        10.0,         5.0
"Load.S45"              ,   1,         5.0,         2.5
"Load.S46"              ,   1,         5.0,         2.5
"Load.S47"              ,   1,        26.2,        18.7
"Load.S48"              ,   1,        52.5,        37.5
"Load.S49"              ,   1,        35.0,        23.7
"Load.S50"              ,   1,        10.0,         5.0
"Load.S51"              ,   1,         5.0,         2.5
"Load.S52"              ,   1,        10.0,         5.0
"Load.S53"              ,   1,        10.0,         5.0
"Load.S55"              ,   1,         5.0,         2.5
"Load.S56"              ,   1,         5.0,         2.5
"Load.S58"              ,   1,         5.0,         2.5
"Load.S59"              ,   1,         5.0,         2.5
"Load.S60"              ,   1,         5.0,         2.5
"Load.S62"              ,   1,        10.0,         5.0
"Load.S63"              ,   1,        10.0,         5.0
"Load.S64"              ,   1,        18.7,         8.7
"Load.S65"              ,   1,        35.0,        25.0
"Load.S66"              ,   1,        18.7,         8.7
"Load.S68"              ,   1,         5.0,         2.5
"Load.S69"              ,   1,        10.0,         5.0
"Load.S70"              ,   1,         5.0,         2.5
"Load.S71"              ,   1,        10.0,         5.0
"Load.S73"              ,   1,        10.0,         5.0
"Load.S74"              ,   1,        10.0,         5.0
"Load.S75"              ,   1,        10.0,         5.0
"Load.S76"              ,   1,        61.2,        45.0
"Load.S77"              ,   1,        10.0,         5.0
"Load.S79"              ,   1,        10.0,         5.0
"Load.S80"              ,   1,        10.0,         5.0
"Load.S82"              ,   1,        10.0,         5.0
"Load.S83"              ,   1,         5.0,         2.5
"Load.S84"              ,   1,         5.0,         2.5
"Load.S85"              ,   1,        10.0,         5.0
"Load.S86"              ,   1,         5.0,         2.5
"Load.S87"              ,   1,        10.0,         5.0
"Load.S88"              ,   1,        10.0,         5.0
"Load.S90"              ,   1,        10.0,         5.0
"Load.S92"              ,   1,        10.0,         5.0
"Load.S94"              ,   1,        10.0,         5.0
"Load.S95"              ,   1,         5.0,         2.5
"Load.S96"              ,   1,         5.0,         2.5
"Load.S98"              ,   1,        10.0,         5.0
"Load.S99"              ,   1,        10.0,         5.0
"Load.S100"             ,   1,        10.0,         5.0
"Load.S102"             ,   1,         5.0,         2.5
"Load.S103"             ,   1,        10.0,         5.0
"Load.S104"             ,   1,        10.0,         5.0
"Load.S106"             ,   1,        10.0,         5.0
"Load.S107"             ,   1,        10.0,         5.0
"Load.S109"             ,   1,        10.0,         5.0
"Load.S111"             ,   1,         5.0,         2.5
"Load.S112"             ,   1,         5.0,         2.5
"Load.S113"             ,   1,        10.0,         5.0
"Load.S114"             ,   1,         5.0,         2.5
